notebook_tutorials/synthetic_net_opendss/master_sample_66.dss
clear
new circuit.synthetic_net basekv=157.6864406779661 pu=1.0 phases=3
edit Vsource.source bus1=bus_68.1.2.3

!---------------- LINES ----------------

new linecode.LCode_0 nphases=1 rmatrix=[0.711585] xmatrix=[1.242115] units=km
new line.line_0 bus1=bus_0.3 bus2=bus_1.3 linecode=LCode_0 length=1.0 units=km
new linecode.LCode_1 nphases=1 rmatrix=[0.785640] xmatrix=[1.242115] units=km
new line.line_1 bus1=bus_0.3 bus2=bus_2.3 linecode=LCode_1 length=1.0 units=km
new linecode.LCode_2 nphases=1 rmatrix=[1.157588] xmatrix=[1.290890] units=km
new line.line_2 bus1=bus_3.3 bus2=bus_4.3 linecode=LCode_2 length=1.0 units=km
new linecode.LCode_3 nphases=1 rmatrix=[1.425373] xmatrix=[1.264238] units=km
new line.line_3 bus1=bus_2.3 bus2=bus_4.3 linecode=LCode_3 length=1.0 units=km
new linecode.LCode_4 nphases=1 rmatrix=[0.811338] xmatrix=[1.242115] units=km
new line.line_4 bus1=bus_4.3 bus2=bus_5.3 linecode=LCode_4 length=1.0 units=km
new linecode.LCode_5 nphases=1 rmatrix=[1.171993] xmatrix=[1.242115] units=km
new line.line_5 bus1=bus_5.3 bus2=bus_6.3 linecode=LCode_5 length=1.0 units=km
new linecode.LCode_6 nphases=1 rmatrix=[0.606965] xmatrix=[1.599725] units=km
new line.line_6 bus1=bus_7.3 bus2=bus_8.3 linecode=LCode_6 length=1.0 units=km
new linecode.LCode_7 nphases=1 rmatrix=[0.681336] xmatrix=[1.242115] units=km
new line.line_7 bus1=bus_8.3 bus2=bus_9.3 linecode=LCode_7 length=1.0 units=km
new linecode.LCode_8 nphases=1 rmatrix=[1.068882] xmatrix=[2.043133] units=km
new line.line_8 bus1=bus_3.3 bus2=bus_10.3 linecode=LCode_8 length=1.0 units=km
new linecode.LCode_9 nphases=1 rmatrix=[0.531412] xmatrix=[1.242115] units=km
new line.line_9 bus1=bus_4.3 bus2=bus_10.3 linecode=LCode_9 length=1.0 units=km
new linecode.LCode_10 nphases=1 rmatrix=[0.600756] xmatrix=[1.379002] units=km
new line.line_10 bus1=bus_10.3 bus2=bus_11.3 linecode=LCode_10 length=1.0 units=km
new linecode.LCode_11 nphases=1 rmatrix=[0.774654] xmatrix=[1.882723] units=km
new line.line_11 bus1=bus_1.3 bus2=bus_11.3 linecode=LCode_11 length=1.0 units=km
new linecode.LCode_12 nphases=1 rmatrix=[0.492358] xmatrix=[1.678273] units=km
new line.line_12 bus1=bus_2.3 bus2=bus_11.3 linecode=LCode_12 length=1.0 units=km
new linecode.LCode_13 nphases=1 rmatrix=[0.506155] xmatrix=[1.242115] units=km
new line.line_13 bus1=bus_6.3 bus2=bus_11.3 linecode=LCode_13 length=1.0 units=km
new linecode.LCode_16 nphases=1 rmatrix=[0.567877] xmatrix=[1.728783] units=km
new line.line_16 bus1=bus_12.2 bus2=bus_14.2 linecode=LCode_16 length=1.0 units=km
new linecode.LCode_17 nphases=1 rmatrix=[0.860378] xmatrix=[1.310247] units=km
new line.line_17 bus1=bus_13.2 bus2=bus_14.2 linecode=LCode_17 length=1.0 units=km
new linecode.LCode_18 nphases=1 rmatrix=[1.264550] xmatrix=[1.488168] units=km
new line.line_18 bus1=bus_11.3 bus2=bus_15.3 linecode=LCode_18 length=1.0 units=km
new linecode.LCode_20 nphases=1 rmatrix=[0.913162] xmatrix=[1.312013] units=km
new line.line_20 bus1=bus_15.3 bus2=bus_16.3 linecode=LCode_20 length=1.0 units=km
new linecode.LCode_21 nphases=1 rmatrix=[0.923915] xmatrix=[1.601993] units=km
new line.line_21 bus1=bus_16.3 bus2=bus_17.3 linecode=LCode_21 length=1.0 units=km
new linecode.LCode_24 nphases=1 rmatrix=[0.745179] xmatrix=[1.369437] units=km
new line.line_24 bus1=bus_14.2 bus2=bus_18.2 linecode=LCode_24 length=1.0 units=km
new linecode.LCode_25 nphases=1 rmatrix=[0.717479] xmatrix=[1.291457] units=km
new line.line_25 bus1=bus_19.1 bus2=bus_20.1 linecode=LCode_25 length=1.0 units=km
new linecode.LCode_26 nphases=1 rmatrix=[0.963789] xmatrix=[1.476472] units=km
new line.line_26 bus1=bus_20.1 bus2=bus_21.1 linecode=LCode_26 length=1.0 units=km
new linecode.LCode_27 nphases=1 rmatrix=[0.607552] xmatrix=[1.242115] units=km
new line.line_27 bus1=bus_21.1 bus2=bus_22.1 linecode=LCode_27 length=1.0 units=km
new linecode.LCode_28 nphases=1 rmatrix=[0.183772] xmatrix=[1.334341] units=km
new line.line_28 bus1=bus_22.1 bus2=bus_23.1 linecode=LCode_28 length=1.0 units=km
new linecode.LCode_29 nphases=1 rmatrix=[0.188082] xmatrix=[1.242115] units=km
new line.line_29 bus1=bus_22.1 bus2=bus_24.1 linecode=LCode_29 length=1.0 units=km
new linecode.LCode_30 nphases=1 rmatrix=[0.910068] xmatrix=[1.304431] units=km
new line.line_30 bus1=bus_24.1 bus2=bus_26.1 linecode=LCode_30 length=1.0 units=km
new linecode.LCode_31 nphases=1 rmatrix=[0.821735] xmatrix=[1.242115] units=km
new line.line_31 bus1=bus_26.1 bus2=bus_27.1 linecode=LCode_31 length=1.0 units=km
new linecode.LCode_32 nphases=1 rmatrix=[0.914839] xmatrix=[1.541189] units=km
new line.line_32 bus1=bus_27.1 bus2=bus_28.1 linecode=LCode_32 length=1.0 units=km
new linecode.LCode_33 nphases=1 rmatrix=[0.840805] xmatrix=[1.242115] units=km
new line.line_33 bus1=bus_7.3 bus2=bus_29.3 linecode=LCode_33 length=1.0 units=km
new linecode.LCode_36 nphases=1 rmatrix=[0.666187] xmatrix=[1.242115] units=km
new line.line_36 bus1=bus_28.1 bus2=bus_30.1 linecode=LCode_36 length=1.0 units=km
new linecode.LCode_37 nphases=1 rmatrix=[0.929516] xmatrix=[1.242115] units=km
new line.line_37 bus1=bus_22.1 bus2=bus_31.1 linecode=LCode_37 length=1.0 units=km
new linecode.LCode_38 nphases=1 rmatrix=[0.297011] xmatrix=[1.825207] units=km
new line.line_38 bus1=bus_30.1 bus2=bus_31.1 linecode=LCode_38 length=1.0 units=km
new linecode.LCode_39 nphases=1 rmatrix=[0.732648] xmatrix=[1.242115] units=km
new line.line_39 bus1=bus_26.1 bus2=bus_31.1 linecode=LCode_39 length=1.0 units=km
new linecode.LCode_40 nphases=1 rmatrix=[0.915761] xmatrix=[1.242115] units=km
new line.line_40 bus1=bus_14.2 bus2=bus_32.2 linecode=LCode_40 length=1.0 units=km
new linecode.LCode_41 nphases=1 rmatrix=[0.798451] xmatrix=[1.307465] units=km
new line.line_41 bus1=bus_18.2 bus2=bus_33.2 linecode=LCode_41 length=1.0 units=km
new linecode.LCode_42 nphases=1 rmatrix=[0.867541] xmatrix=[1.242115] units=km
new line.line_42 bus1=bus_34.2 bus2=bus_35.2 linecode=LCode_42 length=1.0 units=km
new linecode.LCode_43 nphases=1 rmatrix=[0.727698] xmatrix=[1.242115] units=km
new line.line_43 bus1=bus_34.2 bus2=bus_36.2 linecode=LCode_43 length=1.0 units=km
new linecode.LCode_44 nphases=1 rmatrix=[0.423987] xmatrix=[1.242115] units=km
new line.line_44 bus1=bus_32.2 bus2=bus_36.2 linecode=LCode_44 length=1.0 units=km
new linecode.LCode_45 nphases=1 rmatrix=[0.955307] xmatrix=[1.242115] units=km
new line.line_45 bus1=bus_33.2 bus2=bus_35.2 linecode=LCode_45 length=1.0 units=km
new linecode.LCode_46 nphases=1 rmatrix=[0.776611] xmatrix=[1.354393] units=km
new line.line_46 bus1=bus_33.2 bus2=bus_36.2 linecode=LCode_46 length=1.0 units=km
new linecode.LCode_47 nphases=1 rmatrix=[0.588784] xmatrix=[1.242115] units=km
new line.line_47 bus1=bus_36.2 bus2=bus_38.2 linecode=LCode_47 length=1.0 units=km
new linecode.LCode_48 nphases=1 rmatrix=[0.731545] xmatrix=[1.242115] units=km
new line.line_48 bus1=bus_36.2 bus2=bus_39.2 linecode=LCode_48 length=1.0 units=km
new linecode.LCode_49 nphases=1 rmatrix=[1.358548] xmatrix=[1.336669] units=km
new line.line_49 bus1=bus_29.3 bus2=bus_37.3 linecode=LCode_49 length=1.0 units=km
new linecode.LCode_50 nphases=1 rmatrix=[0.730186] xmatrix=[1.242115] units=km
new line.line_50 bus1=bus_38.2 bus2=bus_39.2 linecode=LCode_50 length=1.0 units=km
new linecode.LCode_51 nphases=1 rmatrix=[0.650731] xmatrix=[1.320225] units=km
new line.line_51 bus1=bus_39.2 bus2=bus_40.2 linecode=LCode_51 length=1.0 units=km
new linecode.LCode_52 nphases=1 rmatrix=[0.927247] xmatrix=[1.402059] units=km
new line.line_52 bus1=bus_39.2 bus2=bus_41.2 linecode=LCode_52 length=1.0 units=km
new linecode.LCode_53 nphases=1 rmatrix=[0.273031] xmatrix=[1.358002] units=km
new line.line_53 bus1=bus_40.2 bus2=bus_41.2 linecode=LCode_53 length=1.0 units=km
new linecode.LCode_54 nphases=1 rmatrix=[0.813003] xmatrix=[1.305912] units=km
new line.line_54 bus1=bus_42.2 bus2=bus_43.2 linecode=LCode_54 length=1.0 units=km
new linecode.LCode_55 nphases=1 rmatrix=[0.554352] xmatrix=[1.470481] units=km
new line.line_55 bus1=bus_33.2 bus2=bus_42.2 linecode=LCode_55 length=1.0 units=km
new linecode.LCode_56 nphases=1 rmatrix=[0.781449] xmatrix=[1.242115] units=km
new line.line_56 bus1=bus_43.2 bus2=bus_44.2 linecode=LCode_56 length=1.0 units=km
new linecode.LCode_57 nphases=1 rmatrix=[0.723180] xmatrix=[1.305260] units=km
new line.line_57 bus1=bus_44.2 bus2=bus_45.2 linecode=LCode_57 length=1.0 units=km
new linecode.LCode_58 nphases=2 rmatrix=[0.355579 | 0.059160 0.355579] xmatrix=[1.343225 | 1.024695 1.343225] units=km
new line.line_58 bus1=bus_45.2.3 bus2=bus_46.2.3 linecode=LCode_58 length=1.0 units=km
new linecode.LCode_59 nphases=1 rmatrix=[1.006973] xmatrix=[1.242115] units=km
new line.line_59 bus1=bus_45.2 bus2=bus_47.2 linecode=LCode_59 length=1.0 units=km
new linecode.LCode_60 nphases=1 rmatrix=[0.783898] xmatrix=[1.394306] units=km
new line.line_60 bus1=bus_46.2 bus2=bus_48.2 linecode=LCode_60 length=1.0 units=km
new linecode.LCode_61 nphases=1 rmatrix=[0.316105] xmatrix=[1.296042] units=km
new line.line_61 bus1=bus_41.2 bus2=bus_48.2 linecode=LCode_61 length=1.0 units=km
new linecode.LCode_62 nphases=1 rmatrix=[0.553674] xmatrix=[1.310171] units=km
new line.line_62 bus1=bus_41.2 bus2=bus_48.2 linecode=LCode_62 length=1.0 units=km
new linecode.LCode_63 nphases=1 rmatrix=[0.644815] xmatrix=[1.242115] units=km
new line.line_63 bus1=bus_44.2 bus2=bus_48.2 linecode=LCode_63 length=1.0 units=km
new linecode.LCode_64 nphases=2 rmatrix=[0.184854 | 0.059160 0.184854] xmatrix=[1.242115 | 1.024695 1.242115] units=km
new line.line_64 bus1=bus_47.1.2 bus2=bus_48.1.2 linecode=LCode_64 length=1.0 units=km
new linecode.LCode_65 nphases=2 rmatrix=[0.700988 | 0.059160 0.700988] xmatrix=[1.302901 | 1.024695 1.302901] units=km
new line.line_65 bus1=bus_48.1.2 bus2=bus_49.1.2 linecode=LCode_65 length=1.0 units=km
new linecode.LCode_66 nphases=2 rmatrix=[0.795237 | 0.059160 0.795237] xmatrix=[1.242115 | 1.024695 1.242115] units=km
new line.line_66 bus1=bus_48.1.2 bus2=bus_50.1.2 linecode=LCode_66 length=1.0 units=km
new linecode.LCode_67 nphases=2 rmatrix=[1.021483 | 0.059160 1.021483] xmatrix=[1.468701 | 1.024695 1.468701] units=km
new line.line_67 bus1=bus_50.1.2 bus2=bus_51.1.2 linecode=LCode_67 length=1.0 units=km
new linecode.LCode_68 nphases=2 rmatrix=[0.898832 | 0.059160 0.898832] xmatrix=[1.302386 | 1.024695 1.302386] units=km
new line.line_68 bus1=bus_51.1.2 bus2=bus_52.1.2 linecode=LCode_68 length=1.0 units=km
new linecode.LCode_69 nphases=2 rmatrix=[0.220415 | 0.059160 0.220415] xmatrix=[1.242115 | 1.024695 1.242115] units=km
new line.line_69 bus1=bus_52.1.2 bus2=bus_53.1.2 linecode=LCode_69 length=1.0 units=km
new linecode.LCode_70 nphases=2 rmatrix=[0.658289 | 0.059160 0.658289] xmatrix=[1.242115 | 1.024695 1.242115] units=km
new line.line_70 bus1=bus_48.1.2 bus2=bus_53.1.2 linecode=LCode_70 length=1.0 units=km
new linecode.LCode_71 nphases=2 rmatrix=[0.709003 | 0.059160 0.709003] xmatrix=[1.242115 | 1.024695 1.242115] units=km
new line.line_71 bus1=bus_48.1.2 bus2=bus_53.1.2 linecode=LCode_71 length=1.0 units=km
new linecode.LCode_72 nphases=1 rmatrix=[0.457457] xmatrix=[1.242115] units=km
new line.line_72 bus1=bus_53.2 bus2=bus_54.2 linecode=LCode_72 length=1.0 units=km
new linecode.LCode_73 nphases=2 rmatrix=[0.218103 | 0.059160 0.218103] xmatrix=[1.292646 | 1.024695 1.292646] units=km
new line.line_73 bus1=bus_53.1.2 bus2=bus_55.1.2 linecode=LCode_73 length=1.0 units=km
new linecode.LCode_74 nphases=1 rmatrix=[0.252996] xmatrix=[1.242115] units=km
new line.line_74 bus1=bus_54.2 bus2=bus_55.2 linecode=LCode_74 length=1.0 units=km
new linecode.LCode_75 nphases=2 rmatrix=[1.015949 | 0.059160 1.015949] xmatrix=[1.242115 | 1.024695 1.242115] units=km
new line.line_75 bus1=bus_55.1.2 bus2=bus_56.1.2 linecode=LCode_75 length=1.0 units=km
new linecode.LCode_76 nphases=2 rmatrix=[0.275791 | 0.059160 0.275791] xmatrix=[1.294084 | 1.024695 1.294084] units=km
new line.line_76 bus1=bus_49.1.2 bus2=bus_56.1.2 linecode=LCode_76 length=1.0 units=km
new linecode.LCode_77 nphases=2 rmatrix=[0.178474 | 0.059160 0.178474] xmatrix=[1.242115 | 1.024695 1.242115] units=km
new line.line_77 bus1=bus_55.1.2 bus2=bus_57.1.2 linecode=LCode_77 length=1.0 units=km
new linecode.LCode_78 nphases=2 rmatrix=[0.285192 | 0.059160 0.285192] xmatrix=[1.242115 | 1.024695 1.242115] units=km
new line.line_78 bus1=bus_50.1.2 bus2=bus_57.1.2 linecode=LCode_78 length=1.0 units=km
new linecode.LCode_79 nphases=2 rmatrix=[0.770871 | 0.059160 0.770871] xmatrix=[1.305438 | 1.024695 1.305438] units=km
new line.line_79 bus1=bus_53.1.2 bus2=bus_58.1.2 linecode=LCode_79 length=1.0 units=km
new linecode.LCode_80 nphases=2 rmatrix=[0.280991 | 0.059160 0.280991] xmatrix=[1.242115 | 1.024695 1.242115] units=km
new line.line_80 bus1=bus_55.1.2 bus2=bus_58.1.2 linecode=LCode_80 length=1.0 units=km
new linecode.LCode_81 nphases=2 rmatrix=[1.005669 | 0.059160 1.005669] xmatrix=[1.288212 | 1.024695 1.288212] units=km
new line.line_81 bus1=bus_55.1.2 bus2=bus_58.1.2 linecode=LCode_81 length=1.0 units=km
new linecode.LCode_82 nphases=1 rmatrix=[0.734222] xmatrix=[1.242115] units=km
new line.line_82 bus1=bus_54.2 bus2=bus_58.2 linecode=LCode_82 length=1.0 units=km
new linecode.LCode_83 nphases=1 rmatrix=[1.095198] xmatrix=[1.242115] units=km
new line.line_83 bus1=bus_58.1 bus2=bus_59.1 linecode=LCode_83 length=1.0 units=km
new linecode.LCode_84 nphases=2 rmatrix=[0.868413 | 0.059160 0.868413] xmatrix=[1.398624 | 1.024695 1.398624] units=km
new line.line_84 bus1=bus_58.1.2 bus2=bus_60.1.2 linecode=LCode_84 length=1.0 units=km
new linecode.LCode_85 nphases=1 rmatrix=[0.884169] xmatrix=[1.242115] units=km
new line.line_85 bus1=bus_59.1 bus2=bus_60.1 linecode=LCode_85 length=1.0 units=km
new linecode.LCode_87 nphases=1 rmatrix=[0.859077] xmatrix=[1.254575] units=km
new line.line_87 bus1=bus_60.2 bus2=bus_61.2 linecode=LCode_87 length=1.0 units=km
new linecode.LCode_88 nphases=1 rmatrix=[1.069260] xmatrix=[1.242115] units=km
new line.line_88 bus1=bus_62.3 bus2=bus_63.3 linecode=LCode_88 length=1.0 units=km
new linecode.LCode_89 nphases=2 rmatrix=[0.685747 | 0.059160 0.685747] xmatrix=[1.242115 | 0.940589 1.242115] units=km
new line.line_89 bus1=bus_37.1.3 bus2=bus_64.1.3 linecode=LCode_89 length=1.0 units=km
new linecode.LCode_90 nphases=1 rmatrix=[0.191005] xmatrix=[1.431166] units=km
new line.line_90 bus1=bus_63.3 bus2=bus_64.3 linecode=LCode_90 length=1.0 units=km
new linecode.LCode_91 nphases=2 rmatrix=[0.796075 | 0.059160 0.796075] xmatrix=[1.242115 | 1.024695 1.242115] units=km
new line.line_91 bus1=bus_48.1.2 bus2=bus_65.1.2 linecode=LCode_91 length=1.0 units=km
new linecode.LCode_92 nphases=2 rmatrix=[0.583514 | 0.059160 0.583514] xmatrix=[1.579311 | 1.024695 1.579311] units=km
new line.line_92 bus1=bus_48.1.2 bus2=bus_65.1.2 linecode=LCode_92 length=1.0 units=km
new linecode.LCode_93 nphases=1 rmatrix=[0.649686] xmatrix=[1.346963] units=km
new line.line_93 bus1=bus_61.2 bus2=bus_65.2 linecode=LCode_93 length=1.0 units=km
new linecode.LCode_94 nphases=1 rmatrix=[0.665039] xmatrix=[1.503249] units=km
new line.line_94 bus1=bus_61.2 bus2=bus_66.2 linecode=LCode_94 length=1.0 units=km
new linecode.LCode_95 nphases=2 rmatrix=[0.891329 | 0.059160 0.891329] xmatrix=[1.430844 | 1.024695 1.430844] units=km
new line.line_95 bus1=bus_65.1.2 bus2=bus_66.1.2 linecode=LCode_95 length=1.0 units=km
new linecode.LCode_96 nphases=2 rmatrix=[0.229583 | 0.059160 0.229583] xmatrix=[1.242115 | 1.024695 1.242115] units=km
new line.line_96 bus1=bus_46.2.3 bus2=bus_68.2.3 linecode=LCode_96 length=1.0 units=km
new linecode.LCode_97 nphases=2 rmatrix=[0.144578 | 0.059160 0.144578] xmatrix=[1.320153 | 1.024695 1.320153] units=km
new line.line_97 bus1=bus_48.1.2 bus2=bus_68.1.2 linecode=LCode_97 length=1.0 units=km
new linecode.LCode_98 nphases=1 rmatrix=[0.431578] xmatrix=[1.242115] units=km
new line.line_98 bus1=bus_68.1 bus2=bus_69.1 linecode=LCode_98 length=1.0 units=km
new linecode.LCode_99 nphases=1 rmatrix=[0.482910] xmatrix=[1.401646] units=km
new line.line_99 bus1=bus_23.1 bus2=bus_69.1 linecode=LCode_99 length=1.0 units=km
new linecode.LCode_100 nphases=1 rmatrix=[0.945092] xmatrix=[1.544022] units=km
new line.line_100 bus1=bus_69.1 bus2=bus_70.1 linecode=LCode_100 length=1.0 units=km
new linecode.LCode_101 nphases=1 rmatrix=[0.815102] xmatrix=[1.242115] units=km
new line.line_101 bus1=bus_23.1 bus2=bus_71.1 linecode=LCode_101 length=1.0 units=km
new linecode.LCode_102 nphases=1 rmatrix=[0.629288] xmatrix=[1.532402] units=km
new line.line_102 bus1=bus_70.1 bus2=bus_71.1 linecode=LCode_102 length=1.0 units=km
new linecode.LCode_103 nphases=1 rmatrix=[0.655010] xmatrix=[1.339977] units=km
new line.line_103 bus1=bus_70.1 bus2=bus_72.1 linecode=LCode_103 length=1.0 units=km
new linecode.LCode_104 nphases=1 rmatrix=[0.225132] xmatrix=[1.371421] units=km
new line.line_104 bus1=bus_69.1 bus2=bus_73.1 linecode=LCode_104 length=1.0 units=km
new linecode.LCode_106 nphases=2 rmatrix=[0.777658 | 0.059160 0.777658] xmatrix=[1.242115 | 1.024695 1.242115] units=km
new line.line_106 bus1=bus_68.2.3 bus2=bus_74.2.3 linecode=LCode_106 length=1.0 units=km
new linecode.LCode_108 nphases=1 rmatrix=[0.753340] xmatrix=[1.242115] units=km
new line.line_108 bus1=bus_75.2 bus2=bus_76.2 linecode=LCode_108 length=1.0 units=km
new linecode.LCode_109 nphases=1 rmatrix=[0.296397] xmatrix=[1.242115] units=km
new line.line_109 bus1=bus_68.2 bus2=bus_76.2 linecode=LCode_109 length=1.0 units=km
new linecode.LCode_110 nphases=1 rmatrix=[0.233248] xmatrix=[1.385712] units=km
new line.line_110 bus1=bus_74.2 bus2=bus_76.2 linecode=LCode_110 length=1.0 units=km
new linecode.LCode_111 nphases=1 rmatrix=[0.578298] xmatrix=[1.375763] units=km
new line.line_111 bus1=bus_76.2 bus2=bus_77.2 linecode=LCode_111 length=1.0 units=km
new linecode.LCode_112 nphases=1 rmatrix=[0.631420] xmatrix=[1.279761] units=km
new line.line_112 bus1=bus_77.2 bus2=bus_78.2 linecode=LCode_112 length=1.0 units=km
new linecode.LCode_113 nphases=1 rmatrix=[0.557695] xmatrix=[1.472575] units=km
new line.line_113 bus1=bus_76.2 bus2=bus_79.2 linecode=LCode_113 length=1.0 units=km
new linecode.LCode_114 nphases=1 rmatrix=[1.257438] xmatrix=[1.355868] units=km
new line.line_114 bus1=bus_76.2 bus2=bus_79.2 linecode=LCode_114 length=1.0 units=km
new linecode.LCode_115 nphases=1 rmatrix=[0.760082] xmatrix=[1.242115] units=km
new line.line_115 bus1=bus_78.2 bus2=bus_79.2 linecode=LCode_115 length=1.0 units=km
new linecode.LCode_116 nphases=1 rmatrix=[0.763121] xmatrix=[1.242115] units=km
new line.line_116 bus1=bus_76.2 bus2=bus_81.2 linecode=LCode_116 length=1.0 units=km
new linecode.LCode_117 nphases=1 rmatrix=[0.642346] xmatrix=[1.242115] units=km
new line.line_117 bus1=bus_81.2 bus2=bus_82.2 linecode=LCode_117 length=1.0 units=km
new linecode.LCode_118 nphases=1 rmatrix=[0.534168] xmatrix=[1.242115] units=km
new line.line_118 bus1=bus_82.2 bus2=bus_83.2 linecode=LCode_118 length=1.0 units=km
new linecode.LCode_119 nphases=1 rmatrix=[0.840614] xmatrix=[1.341139] units=km
new line.line_119 bus1=bus_82.2 bus2=bus_84.2 linecode=LCode_119 length=1.0 units=km
new linecode.LCode_120 nphases=1 rmatrix=[0.947198] xmatrix=[1.473933] units=km
new line.line_120 bus1=bus_83.2 bus2=bus_84.2 linecode=LCode_120 length=1.0 units=km
new linecode.LCode_121 nphases=1 rmatrix=[0.931931] xmatrix=[1.242115] units=km
new line.line_121 bus1=bus_84.2 bus2=bus_85.2 linecode=LCode_121 length=1.0 units=km
new linecode.LCode_122 nphases=1 rmatrix=[0.766912] xmatrix=[1.242115] units=km
new line.line_122 bus1=bus_84.2 bus2=bus_87.2 linecode=LCode_122 length=1.0 units=km
new linecode.LCode_123 nphases=1 rmatrix=[1.216445] xmatrix=[1.242115] units=km
new line.line_123 bus1=bus_84.2 bus2=bus_88.2 linecode=LCode_123 length=1.0 units=km
new linecode.LCode_124 nphases=1 rmatrix=[1.141199] xmatrix=[1.242115] units=km
new line.line_124 bus1=bus_87.2 bus2=bus_88.2 linecode=LCode_124 length=1.0 units=km
new linecode.LCode_125 nphases=1 rmatrix=[0.468618] xmatrix=[1.350382] units=km
new line.line_125 bus1=bus_88.2 bus2=bus_89.2 linecode=LCode_125 length=1.0 units=km
new linecode.LCode_126 nphases=1 rmatrix=[0.542990] xmatrix=[1.242115] units=km
new line.line_126 bus1=bus_88.2 bus2=bus_89.2 linecode=LCode_126 length=1.0 units=km
new linecode.LCode_127 nphases=1 rmatrix=[0.862855] xmatrix=[1.242115] units=km
new line.line_127 bus1=bus_89.2 bus2=bus_90.2 linecode=LCode_127 length=1.0 units=km
new linecode.LCode_128 nphases=1 rmatrix=[0.861728] xmatrix=[1.493977] units=km
new line.line_128 bus1=bus_88.2 bus2=bus_91.2 linecode=LCode_128 length=1.0 units=km
new linecode.LCode_129 nphases=1 rmatrix=[0.210055] xmatrix=[1.319013] units=km
new line.line_129 bus1=bus_88.2 bus2=bus_91.2 linecode=LCode_129 length=1.0 units=km
new linecode.LCode_130 nphases=1 rmatrix=[0.388978] xmatrix=[1.327203] units=km
new line.line_130 bus1=bus_90.2 bus2=bus_91.2 linecode=LCode_130 length=1.0 units=km
new linecode.LCode_131 nphases=1 rmatrix=[0.823787] xmatrix=[1.282652] units=km
new line.line_131 bus1=bus_91.2 bus2=bus_92.2 linecode=LCode_131 length=1.0 units=km
new linecode.LCode_132 nphases=1 rmatrix=[0.990566] xmatrix=[1.537610] units=km
new line.line_132 bus1=bus_91.2 bus2=bus_93.2 linecode=LCode_132 length=1.0 units=km
new linecode.LCode_133 nphases=1 rmatrix=[0.735642] xmatrix=[1.242115] units=km
new line.line_133 bus1=bus_92.2 bus2=bus_93.2 linecode=LCode_133 length=1.0 units=km
new linecode.LCode_134 nphases=1 rmatrix=[1.183217] xmatrix=[1.334136] units=km
new line.line_134 bus1=bus_93.2 bus2=bus_94.2 linecode=LCode_134 length=1.0 units=km
new linecode.LCode_135 nphases=1 rmatrix=[0.274623] xmatrix=[1.247666] units=km
new line.line_135 bus1=bus_79.2 bus2=bus_95.2 linecode=LCode_135 length=1.0 units=km
new linecode.LCode_136 nphases=1 rmatrix=[0.194612] xmatrix=[1.282076] units=km
new line.line_136 bus1=bus_81.2 bus2=bus_95.2 linecode=LCode_136 length=1.0 units=km
new linecode.LCode_137 nphases=1 rmatrix=[1.072996] xmatrix=[1.584813] units=km
new line.line_137 bus1=bus_93.2 bus2=bus_95.2 linecode=LCode_137 length=1.0 units=km
new linecode.LCode_138 nphases=1 rmatrix=[0.205841] xmatrix=[1.373694] units=km
new line.line_138 bus1=bus_79.2 bus2=bus_96.2 linecode=LCode_138 length=1.0 units=km
new linecode.LCode_139 nphases=1 rmatrix=[0.620064] xmatrix=[1.294514] units=km
new line.line_139 bus1=bus_79.2 bus2=bus_97.2 linecode=LCode_139 length=1.0 units=km
new linecode.LCode_140 nphases=1 rmatrix=[0.788766] xmatrix=[1.303490] units=km
new line.line_140 bus1=bus_79.2 bus2=bus_98.2 linecode=LCode_140 length=1.0 units=km
new linecode.LCode_141 nphases=1 rmatrix=[0.625402] xmatrix=[1.242115] units=km
new line.line_141 bus1=bus_91.2 bus2=bus_99.2 linecode=LCode_141 length=1.0 units=km
new linecode.LCode_142 nphases=1 rmatrix=[0.639278] xmatrix=[1.242115] units=km
new line.line_142 bus1=bus_93.2 bus2=bus_99.2 linecode=LCode_142 length=1.0 units=km
new linecode.LCode_143 nphases=1 rmatrix=[0.946678] xmatrix=[1.242115] units=km
new line.line_143 bus1=bus_94.2 bus2=bus_95.2 linecode=LCode_143 length=1.0 units=km
new linecode.LCode_144 nphases=1 rmatrix=[0.619771] xmatrix=[1.317499] units=km
new line.line_144 bus1=bus_95.2 bus2=bus_96.2 linecode=LCode_144 length=1.0 units=km
new linecode.LCode_145 nphases=1 rmatrix=[0.639253] xmatrix=[1.367051] units=km
new line.line_145 bus1=bus_97.2 bus2=bus_99.2 linecode=LCode_145 length=1.0 units=km
new linecode.LCode_146 nphases=1 rmatrix=[0.493819] xmatrix=[1.242115] units=km
new line.line_146 bus1=bus_98.2 bus2=bus_99.2 linecode=LCode_146 length=1.0 units=km
new linecode.LCode_147 nphases=1 rmatrix=[0.749313] xmatrix=[1.242115] units=km
new line.line_147 bus1=bus_99.2 bus2=bus_100.2 linecode=LCode_147 length=1.0 units=km
new linecode.LCode_148 nphases=1 rmatrix=[0.626640] xmatrix=[1.242115] units=km
new line.line_148 bus1=bus_91.2 bus2=bus_101.2 linecode=LCode_148 length=1.0 units=km
new linecode.LCode_149 nphases=1 rmatrix=[0.693368] xmatrix=[1.242115] units=km
new line.line_149 bus1=bus_100.2 bus2=bus_101.2 linecode=LCode_149 length=1.0 units=km
new linecode.LCode_150 nphases=1 rmatrix=[0.826978] xmatrix=[1.660876] units=km
new line.line_150 bus1=bus_99.2 bus2=bus_102.2 linecode=LCode_150 length=1.0 units=km
new linecode.LCode_151 nphases=1 rmatrix=[1.053485] xmatrix=[1.361184] units=km
new line.line_151 bus1=bus_99.2 bus2=bus_103.2 linecode=LCode_151 length=1.0 units=km
new linecode.LCode_152 nphases=1 rmatrix=[0.936808] xmatrix=[1.242115] units=km
new line.line_152 bus1=bus_102.2 bus2=bus_103.2 linecode=LCode_152 length=1.0 units=km
new linecode.LCode_153 nphases=1 rmatrix=[0.480914] xmatrix=[1.458718] units=km
new line.line_153 bus1=bus_102.2 bus2=bus_104.2 linecode=LCode_153 length=1.0 units=km
new linecode.LCode_154 nphases=1 rmatrix=[1.120522] xmatrix=[1.242115] units=km
new line.line_154 bus1=bus_99.2 bus2=bus_105.2 linecode=LCode_154 length=1.0 units=km
new linecode.LCode_155 nphases=1 rmatrix=[0.581131] xmatrix=[1.364955] units=km
new line.line_155 bus1=bus_103.2 bus2=bus_104.2 linecode=LCode_155 length=1.0 units=km
new linecode.LCode_156 nphases=1 rmatrix=[1.033134] xmatrix=[1.335190] units=km
new line.line_156 bus1=bus_104.2 bus2=bus_105.2 linecode=LCode_156 length=1.0 units=km
new linecode.LCode_157 nphases=1 rmatrix=[0.835367] xmatrix=[1.242115] units=km
new line.line_157 bus1=bus_104.2 bus2=bus_106.2 linecode=LCode_157 length=1.0 units=km
new linecode.LCode_158 nphases=1 rmatrix=[0.634691] xmatrix=[1.395586] units=km
new line.line_158 bus1=bus_104.2 bus2=bus_107.2 linecode=LCode_158 length=1.0 units=km
new linecode.LCode_159 nphases=1 rmatrix=[1.132049] xmatrix=[1.267164] units=km
new line.line_159 bus1=bus_105.2 bus2=bus_106.2 linecode=LCode_159 length=1.0 units=km
new linecode.LCode_160 nphases=1 rmatrix=[0.700798] xmatrix=[1.242115] units=km
new line.line_160 bus1=bus_107.2 bus2=bus_108.2 linecode=LCode_160 length=1.0 units=km
new linecode.LCode_161 nphases=1 rmatrix=[0.204853] xmatrix=[1.431814] units=km
new line.line_161 bus1=bus_102.2 bus2=bus_109.2 linecode=LCode_161 length=1.0 units=km
new linecode.LCode_162 nphases=1 rmatrix=[0.690962] xmatrix=[1.367479] units=km
new line.line_162 bus1=bus_108.2 bus2=bus_109.2 linecode=LCode_162 length=1.0 units=km
new linecode.LCode_163 nphases=1 rmatrix=[1.082847] xmatrix=[1.390168] units=km
new line.line_163 bus1=bus_109.2 bus2=bus_110.2 linecode=LCode_163 length=1.0 units=km
new linecode.LCode_164 nphases=1 rmatrix=[0.655425] xmatrix=[1.339803] units=km
new line.line_164 bus1=bus_109.2 bus2=bus_111.2 linecode=LCode_164 length=1.0 units=km
new linecode.LCode_166 nphases=1 rmatrix=[0.597368] xmatrix=[1.489724] units=km
new line.line_166 bus1=bus_31.1 bus2=bus_112.1 linecode=LCode_166 length=1.0 units=km
new linecode.LCode_167 nphases=1 rmatrix=[0.475029] xmatrix=[1.242115] units=km
new line.line_167 bus1=bus_31.1 bus2=bus_113.1 linecode=LCode_167 length=1.0 units=km
new linecode.LCode_168 nphases=1 rmatrix=[0.706646] xmatrix=[1.516221] units=km
new line.line_168 bus1=bus_26.1 bus2=bus_114.1 linecode=LCode_168 length=1.0 units=km
new linecode.LCode_169 nphases=1 rmatrix=[0.821574] xmatrix=[1.498175] units=km
new line.line_169 bus1=bus_113.1 bus2=bus_114.1 linecode=LCode_169 length=1.0 units=km
new linecode.LCode_170 nphases=1 rmatrix=[0.644903] xmatrix=[1.591844] units=km
new line.line_170 bus1=bus_11.3 bus2=bus_116.3 linecode=LCode_170 length=1.0 units=km
new linecode.LCode_171 nphases=2 rmatrix=[0.312668 | 0.059160 0.312668] xmatrix=[1.323592 | 1.024695 1.323592] units=km
new line.line_171 bus1=bus_74.2.3 bus2=bus_117.2.3 linecode=LCode_171 length=1.0 units=km
new linecode.LCode_172 nphases=1 rmatrix=[1.028677] xmatrix=[1.402204] units=km
new line.line_172 bus1=bus_75.2 bus2=bus_117.2 linecode=LCode_172 length=1.0 units=km

!---------------- LOADS ----------------

new load.load_0_C bus1=bus_0.3 Phases=1 kv=157.6864406779661 kw=1814.482672947671 kvar=595.1503167268361 vminpu=0.85
new load.load_1_C bus1=bus_1.3 Phases=1 kv=157.6864406779661 kw=2548.3596360083275 kvar=835.8619606107314 vminpu=0.85
new load.load_2_C bus1=bus_2.3 Phases=1 kv=157.6864406779661 kw=1807.499649874532 kvar=592.8598851588465 vminpu=0.85
new load.load_3_C bus1=bus_3.3 Phases=1 kv=157.6864406779661 kw=2162.884049592205 kvar=709.4259682662432 vminpu=0.85
new load.load_4_C bus1=bus_4.3 Phases=1 kv=157.6864406779661 kw=1689.3494904618651 kvar=554.1066328714918 vminpu=0.85
new load.load_5_C bus1=bus_5.3 Phases=1 kv=157.6864406779661 kw=2502.433203174162 kvar=820.7980906411251 vminpu=0.85
new load.load_6_C bus1=bus_6.3 Phases=1 kv=157.6864406779661 kw=2403.996999689037 kvar=788.5110158980041 vminpu=0.85
new load.load_7_C bus1=bus_7.3 Phases=1 kv=157.6864406779661 kw=1434.469728198837 kvar=470.50607084921853 vminpu=0.85
new load.load_8_C bus1=bus_8.3 Phases=1 kv=157.6864406779661 kw=2790.478257486282 kvar=915.2768684555006 vminpu=0.85
new load.load_9_C bus1=bus_9.3 Phases=1 kv=157.6864406779661 kw=2344.7138795829856 kvar=769.0661525032193 vminpu=0.85
new load.load_10_C bus1=bus_10.3 Phases=1 kv=157.6864406779661 kw=2577.4163793281277 kvar=845.3925724196259 vminpu=0.85
new load.load_11_C bus1=bus_11.3 Phases=1 kv=157.6864406779661 kw=2220.559107245528 kvar=728.3433871765333 vminpu=0.85
new load.load_12_B bus1=bus_12.2 Phases=1 kv=157.6864406779661 kw=2590.9818422677185 kvar=849.8420442638118 vminpu=0.85
new load.load_13_B bus1=bus_13.2 Phases=1 kv=157.6864406779661 kw=1433.2980356249727 kvar=470.12175568499106 vminpu=0.85
new load.load_14_B bus1=bus_14.2 Phases=1 kv=157.6864406779661 kw=2364.3634941744417 kvar=775.511226089217 vminpu=0.85
new load.load_15_C bus1=bus_15.3 Phases=1 kv=157.6864406779661 kw=2486.7369412147555 kvar=815.6497167184398 vminpu=0.85
new load.load_16_C bus1=bus_16.3 Phases=1 kv=157.6864406779661 kw=2155.290706061652 kvar=706.9353515882219 vminpu=0.85
new load.load_17_C bus1=bus_17.3 Phases=1 kv=157.6864406779661 kw=2172.7949524729056 kvar=712.6767444111131 vminpu=0.85
new load.load_18_B bus1=bus_18.2 Phases=1 kv=157.6864406779661 kw=1890.6325612098728 kvar=620.1274800768383 vminpu=0.85
new load.load_19_A bus1=bus_19.1 Phases=1 kv=157.6864406779661 kw=1982.9061956904293 kvar=650.3932321864609 vminpu=0.85
new load.load_20_A bus1=bus_20.1 Phases=1 kv=157.6864406779661 kw=2270.3258294229768 kvar=744.6668720507364 vminpu=0.85
new load.load_21_A bus1=bus_21.1 Phases=1 kv=157.6864406779661 kw=2020.0236817027933 kvar=662.5677675985162 vminpu=0.85
new load.load_22_A bus1=bus_22.1 Phases=1 kv=157.6864406779661 kw=1729.7653774816238 kvar=567.3630438139726 vminpu=0.85
new load.load_23_A bus1=bus_23.1 Phases=1 kv=157.6864406779661 kw=1742.91990816333 kvar=571.6777298775723 vminpu=0.85
new load.load_24_A bus1=bus_24.1 Phases=1 kv=157.6864406779661 kw=1952.22764445906 kvar=640.3306673825717 vminpu=0.85
new load.load_25_A bus1=bus_25.1 Phases=1 kv=157.6864406779661 kw=2069.010648974182 kvar=678.6354928635317 vminpu=0.85
new load.load_26_A bus1=bus_26.1 Phases=1 kv=157.6864406779661 kw=2513.14466279269 kvar=824.3114493960023 vminpu=0.85
new load.load_27_A bus1=bus_27.1 Phases=1 kv=157.6864406779661 kw=2036.0180734258556 kvar=667.8139280836807 vminpu=0.85
new load.load_28_A bus1=bus_28.1 Phases=1 kv=157.6864406779661 kw=2946.2567157551025 kvar=966.3722027676737 vminpu=0.85
new load.load_29_C bus1=bus_29.3 Phases=1 kv=157.6864406779661 kw=2646.482559857212 kvar=868.0462796331656 vminpu=0.85
new load.load_30_A bus1=bus_30.1 Phases=1 kv=157.6864406779661 kw=1833.448536126976 kvar=601.3711198496482 vminpu=0.85
new load.load_31_A bus1=bus_31.1 Phases=1 kv=157.6864406779661 kw=2378.2619932995644 kvar=780.0699338022572 vminpu=0.85
new load.load_32_B bus1=bus_32.2 Phases=1 kv=157.6864406779661 kw=2001.6456022991688 kvar=656.5397575541274 vminpu=0.85
new load.load_33_B bus1=bus_33.2 Phases=1 kv=157.6864406779661 kw=2146.6934336070854 kvar=704.1154462231241 vminpu=0.85
new load.load_34_B bus1=bus_34.2 Phases=1 kv=157.6864406779661 kw=2089.2544119645927 kvar=685.2754471243865 vminpu=0.85
new load.load_35_B bus1=bus_35.2 Phases=1 kv=157.6864406779661 kw=1270.4692913716156 kvar=416.7139275698899 vminpu=0.85
new load.load_36_B bus1=bus_36.2 Phases=1 kv=157.6864406779661 kw=1838.4891183342745 kvar=603.0244308136421 vminpu=0.85
new load.load_37_A bus1=bus_37.1 Phases=1 kv=157.6864406779661 kw=291.80000194716416 kvar=95.71040063866985 vminpu=0.85
new load.load_37_C bus1=bus_37.3 Phases=1 kv=157.6864406779661 kw=1010.9857342213628 kvar=331.603320824607 vminpu=0.85
new load.load_38_B bus1=bus_38.2 Phases=1 kv=157.6864406779661 kw=1262.7451251587022 kvar=414.1804010520543 vminpu=0.85
new load.load_39_B bus1=bus_39.2 Phases=1 kv=157.6864406779661 kw=1802.2311777288444 kvar=591.1318262950609 vminpu=0.85
new load.load_40_B bus1=bus_40.2 Phases=1 kv=157.6864406779661 kw=2031.0598645939936 kvar=666.18763558683 vminpu=0.85
new load.load_41_B bus1=bus_41.2 Phases=1 kv=157.6864406779661 kw=2005.6392764820723 kvar=657.8496826861198 vminpu=0.85
new load.load_42_B bus1=bus_42.2 Phases=1 kv=157.6864406779661 kw=1773.6881172537758 kvar=581.7697024592385 vminpu=0.85
new load.load_43_B bus1=bus_43.2 Phases=1 kv=157.6864406779661 kw=1816.014144928296 kvar=595.6526395364812 vminpu=0.85
new load.load_44_B bus1=bus_44.2 Phases=1 kv=157.6864406779661 kw=2650.417804222532 kvar=869.3370397849906 vminpu=0.85
new load.load_45_B bus1=bus_45.2 Phases=1 kv=157.6864406779661 kw=535.4838077907972 kvar=175.6386889553815 vminpu=0.85
new load.load_45_C bus1=bus_45.3 Phases=1 kv=157.6864406779661 kw=3120.4525268417865 kvar=1023.508428804106 vminpu=0.85
new load.load_46_B bus1=bus_46.2 Phases=1 kv=157.6864406779661 kw=320.59245668746246 kvar=105.15432579348769 vminpu=0.85
new load.load_46_C bus1=bus_46.3 Phases=1 kv=157.6864406779661 kw=1704.741497390894 kvar=559.1552111442132 vminpu=0.85
new load.load_47_A bus1=bus_47.1 Phases=1 kv=157.6864406779661 kw=392.9848354457056 kvar=128.89902602619145 vminpu=0.85
new load.load_47_B bus1=bus_47.2 Phases=1 kv=157.6864406779661 kw=1842.1366161557264 kvar=604.2208100990783 vminpu=0.85
new load.load_48_A bus1=bus_48.1 Phases=1 kv=157.6864406779661 kw=135.94468432830536 kvar=44.58985645968416 vminpu=0.85
new load.load_48_B bus1=bus_48.2 Phases=1 kv=157.6864406779661 kw=945.8650696047652 kvar=310.243742830363 vminpu=0.85
new load.load_49_A bus1=bus_49.1 Phases=1 kv=157.6864406779661 kw=171.20855996070816 kvar=56.156407667112276 vminpu=0.85
new load.load_49_B bus1=bus_49.2 Phases=1 kv=157.6864406779661 kw=1850.2652346686127 kvar=606.886996971305 vminpu=0.85
new load.load_50_A bus1=bus_50.1 Phases=1 kv=157.6864406779661 kw=156.1651243038752 kvar=51.222160771671064 vminpu=0.85
new load.load_50_B bus1=bus_50.2 Phases=1 kv=157.6864406779661 kw=1347.755316324383 kvar=442.06374375439765 vminpu=0.85
new load.load_51_A bus1=bus_51.1 Phases=1 kv=157.6864406779661 kw=1869.2349207374984 kvar=613.1090540018995 vminpu=0.85
new load.load_51_B bus1=bus_51.2 Phases=1 kv=157.6864406779661 kw=209.4537120009689 kvar=68.7008175363178 vminpu=0.85
new load.load_52_A bus1=bus_52.1 Phases=1 kv=157.6864406779661 kw=2400.433982959883 kvar=787.3423464108416 vminpu=0.85
new load.load_52_B bus1=bus_52.2 Phases=1 kv=157.6864406779661 kw=150.72336165827457 kvar=49.43726262391406 vminpu=0.85
new load.load_53_A bus1=bus_53.1 Phases=1 kv=157.6864406779661 kw=1035.21612464366 kvar=339.5508888831205 vminpu=0.85
new load.load_53_B bus1=bus_53.2 Phases=1 kv=157.6864406779661 kw=976.5562124558196 kvar=320.3104376855088 vminpu=0.85
new load.load_54_B bus1=bus_54.2 Phases=1 kv=157.6864406779661 kw=1711.5615058747674 kvar=561.3921739269238 vminpu=0.85
new load.load_55_A bus1=bus_55.1 Phases=1 kv=157.6864406779661 kw=276.8629074226032 kvar=90.81103363461385 vminpu=0.85
new load.load_55_B bus1=bus_55.2 Phases=1 kv=157.6864406779661 kw=1511.9219977899388 kvar=495.9104152751 vminpu=0.85
new load.load_56_A bus1=bus_56.1 Phases=1 kv=157.6864406779661 kw=1635.4204744940507 kvar=536.4179156340487 vminpu=0.85
new load.load_56_B bus1=bus_56.2 Phases=1 kv=157.6864406779661 kw=73.49312390115263 kvar=24.105744639578063 vminpu=0.85
new load.load_57_A bus1=bus_57.1 Phases=1 kv=157.6864406779661 kw=1447.7703351723617 kvar=474.8686699365347 vminpu=0.85
new load.load_57_B bus1=bus_57.2 Phases=1 kv=157.6864406779661 kw=560.4125347673921 kvar=183.8153114037046 vminpu=0.85
new load.load_58_A bus1=bus_58.1 Phases=1 kv=157.6864406779661 kw=618.998763687581 kvar=203.03159448952658 vminpu=0.85
new load.load_58_B bus1=bus_58.2 Phases=1 kv=157.6864406779661 kw=1370.5154925284487 kvar=449.5290815493312 vminpu=0.85
new load.load_59_A bus1=bus_59.1 Phases=1 kv=157.6864406779661 kw=2500.602735562556 kvar=820.1976972645184 vminpu=0.85
new load.load_60_A bus1=bus_60.1 Phases=1 kv=157.6864406779661 kw=1193.2874886347035 kvar=391.3982962721828 vminpu=0.85
new load.load_60_B bus1=bus_60.2 Phases=1 kv=157.6864406779661 kw=192.51035948736595 kvar=63.143397911856034 vminpu=0.85
new load.load_61_B bus1=bus_61.2 Phases=1 kv=157.6864406779661 kw=2936.291078006094 kvar=963.1034735859988 vminpu=0.85
new load.load_62_C bus1=bus_62.3 Phases=1 kv=157.6864406779661 kw=2548.793096858882 kvar=836.0041357697133 vminpu=0.85
new load.load_63_C bus1=bus_63.3 Phases=1 kv=157.6864406779661 kw=2146.24330259494 kvar=703.9678032511404 vminpu=0.85
new load.load_64_A bus1=bus_64.1 Phases=1 kv=157.6864406779661 kw=354.7627080433896 kvar=116.36216823823179 vminpu=0.85
new load.load_64_C bus1=bus_64.3 Phases=1 kv=157.6864406779661 kw=1439.0056479722637 kvar=471.9938525349025 vminpu=0.85
new load.load_65_A bus1=bus_65.1 Phases=1 kv=157.6864406779661 kw=103.83538687171706 kvar=34.0580068939232 vminpu=0.85
new load.load_65_B bus1=bus_65.2 Phases=1 kv=157.6864406779661 kw=1032.7675700085022 kvar=338.7477629627887 vminpu=0.85
new load.load_66_A bus1=bus_66.1 Phases=1 kv=157.6864406779661 kw=154.03234523010508 kvar=50.52260923547447 vminpu=0.85
new load.load_66_B bus1=bus_66.2 Phases=1 kv=157.6864406779661 kw=2031.7720125086505 kvar=666.4212201028374 vminpu=0.85
new load.load_67_A bus1=bus_67.1 Phases=1 kv=157.6864406779661 kw=345.9321092720464 kvar=113.46573184123122 vminpu=0.85
new load.load_67_C bus1=bus_67.3 Phases=1 kv=157.6864406779661 kw=2618.972238518427 kvar=859.0228942340441 vminpu=0.85
new load.load_69_A bus1=bus_69.1 Phases=1 kv=157.6864406779661 kw=1961.0693708131785 kvar=643.2307536267226 vminpu=0.85
new load.load_70_A bus1=bus_70.1 Phases=1 kv=157.6864406779661 kw=1365.604693027144 kvar=447.9183393129033 vminpu=0.85
new load.load_71_A bus1=bus_71.1 Phases=1 kv=157.6864406779661 kw=2459.573812817226 kvar=806.7402106040502 vminpu=0.85
new load.load_72_A bus1=bus_72.1 Phases=1 kv=157.6864406779661 kw=1929.59563929788 kvar=632.9073696897048 vminpu=0.85
new load.load_73_A bus1=bus_73.1 Phases=1 kv=157.6864406779661 kw=1677.564721079484 kvar=550.2412285140707 vminpu=0.85
new load.load_74_B bus1=bus_74.2 Phases=1 kv=157.6864406779661 kw=674.0293405014755 kvar=221.081623684484 vminpu=0.85
new load.load_74_C bus1=bus_74.3 Phases=1 kv=157.6864406779661 kw=247.44091626648049 kvar=81.1606205354056 vminpu=0.85
new load.load_75_B bus1=bus_75.2 Phases=1 kv=157.6864406779661 kw=1824.676199900911 kvar=598.4937935674988 vminpu=0.85
new load.load_76_B bus1=bus_76.2 Phases=1 kv=157.6864406779661 kw=2259.227271313427 kvar=741.0265449908042 vminpu=0.85
new load.load_77_B bus1=bus_77.2 Phases=1 kv=157.6864406779661 kw=2848.719394131861 kvar=934.3799612752505 vminpu=0.85
new load.load_78_B bus1=bus_78.2 Phases=1 kv=157.6864406779661 kw=1508.186710844606 kvar=494.6852411570308 vminpu=0.85
new load.load_79_B bus1=bus_79.2 Phases=1 kv=157.6864406779661 kw=1775.6007211920305 kvar=582.3970365509861 vminpu=0.85
new load.load_80_A bus1=bus_80.1 Phases=1 kv=157.6864406779661 kw=578.6438572782355 kvar=189.79518518726124 vminpu=0.85
new load.load_80_C bus1=bus_80.3 Phases=1 kv=157.6864406779661 kw=1390.4841430488946 kvar=456.07879892003746 vminpu=0.85
new load.load_81_B bus1=bus_81.2 Phases=1 kv=157.6864406779661 kw=2453.7723694351043 kvar=804.8373371747142 vminpu=0.85
new load.load_82_B bus1=bus_82.2 Phases=1 kv=157.6864406779661 kw=1778.4048305137353 kvar=583.3167844085052 vminpu=0.85
new load.load_83_B bus1=bus_83.2 Phases=1 kv=157.6864406779661 kw=1794.2697414063673 kvar=588.5204751812885 vminpu=0.85
new load.load_84_B bus1=bus_84.2 Phases=1 kv=157.6864406779661 kw=2575.466545653416 kvar=844.7530269743204 vminpu=0.85
new load.load_85_B bus1=bus_85.2 Phases=1 kv=157.6864406779661 kw=2342.506070166426 kvar=768.3419910145877 vminpu=0.85
new load.load_86_B bus1=bus_86.2 Phases=1 kv=157.6864406779661 kw=1826.319038808576 kvar=599.032644729213 vminpu=0.85
new load.load_87_B bus1=bus_87.2 Phases=1 kv=157.6864406779661 kw=1870.561677243878 kvar=613.544230135992 vminpu=0.85
new load.load_88_B bus1=bus_88.2 Phases=1 kv=157.6864406779661 kw=2053.6979212411507 kvar=673.6129181670974 vminpu=0.85
new load.load_89_B bus1=bus_89.2 Phases=1 kv=157.6864406779661 kw=1960.2618084939072 kvar=642.9658731860015 vminpu=0.85
new load.load_90_B bus1=bus_90.2 Phases=1 kv=157.6864406779661 kw=2318.8296303022885 kvar=760.5761187391506 vminpu=0.85
new load.load_91_B bus1=bus_91.2 Phases=1 kv=157.6864406779661 kw=2574.8394990960364 kvar=844.5473557035 vminpu=0.85
new load.load_92_B bus1=bus_92.2 Phases=1 kv=157.6864406779661 kw=3064.78065156361 kvar=1005.248053712864 vminpu=0.85
new load.load_93_B bus1=bus_93.2 Phases=1 kv=157.6864406779661 kw=1258.887110616418 kvar=412.91497228218515 vminpu=0.85
new load.load_94_B bus1=bus_94.2 Phases=1 kv=157.6864406779661 kw=1757.8593766743409 kvar=576.5778755491838 vminpu=0.85
new load.load_95_B bus1=bus_95.2 Phases=1 kv=157.6864406779661 kw=2424.96540957374 kvar=795.3886543401868 vminpu=0.85
new load.load_96_B bus1=bus_96.2 Phases=1 kv=157.6864406779661 kw=2635.8514984503067 kvar=864.5592914917006 vminpu=0.85
new load.load_97_B bus1=bus_97.2 Phases=1 kv=157.6864406779661 kw=2138.5067596458834 kvar=701.4302171638498 vminpu=0.85
new load.load_98_B bus1=bus_98.2 Phases=1 kv=157.6864406779661 kw=1781.7062699637374 kvar=584.3996565481059 vminpu=0.85
new load.load_99_B bus1=bus_99.2 Phases=1 kv=157.6864406779661 kw=1811.895777888936 kvar=594.301815147571 vminpu=0.85
new load.load_100_B bus1=bus_100.2 Phases=1 kv=157.6864406779661 kw=1926.6565287323044 kvar=631.9433414241959 vminpu=0.85
new load.load_101_B bus1=bus_101.2 Phases=1 kv=157.6864406779661 kw=1896.038614870563 kvar=621.9006656775447 vminpu=0.85
new load.load_102_B bus1=bus_102.2 Phases=1 kv=157.6864406779661 kw=1792.9339569083595 kvar=588.0823378659419 vminpu=0.85
new load.load_103_B bus1=bus_103.2 Phases=1 kv=157.6864406779661 kw=1624.193519436318 kvar=532.7354743751123 vminpu=0.85
new load.load_104_B bus1=bus_104.2 Phases=1 kv=157.6864406779661 kw=2527.24695764138 kvar=828.9370021063727 vminpu=0.85
new load.load_105_B bus1=bus_105.2 Phases=1 kv=157.6864406779661 kw=1711.6460830202582 kvar=561.4199152306447 vminpu=0.85
new load.load_106_B bus1=bus_106.2 Phases=1 kv=157.6864406779661 kw=1729.671528549982 kvar=567.3322613643941 vminpu=0.85
new load.load_107_B bus1=bus_107.2 Phases=1 kv=157.6864406779661 kw=2266.3175922846817 kvar=743.3521702693756 vminpu=0.85
new load.load_108_B bus1=bus_108.2 Phases=1 kv=157.6864406779661 kw=1945.2317425403176 kvar=638.0360115532242 vminpu=0.85
new load.load_109_B bus1=bus_109.2 Phases=1 kv=157.6864406779661 kw=2007.9155144606195 kvar=658.5962887430833 vminpu=0.85
new load.load_110_B bus1=bus_110.2 Phases=1 kv=157.6864406779661 kw=2194.708691960926 kvar=719.8644509631838 vminpu=0.85
new load.load_111_B bus1=bus_111.2 Phases=1 kv=157.6864406779661 kw=1539.702034552323 kvar=505.022267333162 vminpu=0.85
new load.load_112_A bus1=bus_112.1 Phases=1 kv=157.6864406779661 kw=1951.1741098465168 kvar=639.9851080296576 vminpu=0.85
new load.load_113_A bus1=bus_113.1 Phases=1 kv=157.6864406779661 kw=2601.2297239020354 kvar=853.2033494398677 vminpu=0.85
new load.load_114_A bus1=bus_114.1 Phases=1 kv=157.6864406779661 kw=2508.95291738486 kvar=822.9365569022341 vminpu=0.85
new load.load_115_C bus1=bus_115.3 Phases=1 kv=157.6864406779661 kw=2303.8400339762898 kvar=755.659531144223 vminpu=0.85
new load.load_116_C bus1=bus_116.3 Phases=1 kv=157.6864406779661 kw=2229.075569237911 kvar=731.1367867100349 vminpu=0.85
new load.load_117_B bus1=bus_117.2 Phases=1 kv=157.6864406779661 kw=810.5623684758793 kvar=265.8644568600884 vminpu=0.85
new load.load_117_C bus1=bus_117.3 Phases=1 kv=157.6864406779661 kw=1426.1258489080408 kvar=467.7692784418374 vminpu=0.85

!---------------- SOLUTION ----------------

set controlmode=off
Set Voltagebases=[157.6864406779661]
calcv
Solve